
/*--------------------------------*- C++ -*----------------------------------*\
  =========                 |
  \\      /  F ield         | OpenFOAM: The Open Source CFD Toolbox
   \\    /   O peration     | Website:  https://openfoam.org
    \\  /    A nd           | Version:  12
     \\/     M anipulation  |
\*---------------------------------------------------------------------------*/
FoamFile
{
    version     2.0;
    format      ascii;
    class       dictionary;
    object      blockMeshDict;
}

backgroundMesh
{

    xMin -15000;
    xMax 15000; 

    yMin -15000; 
    yMax 15000; 

    zMin 0;
    zMax 10000; 


    xCells 40;
    yCells 40;
    zCells 12;
}


vertices
(
    ($!backgroundMesh/xMin $!backgroundMesh/yMin $!backgroundMesh/zMin) // 0
    ($!backgroundMesh/xMax $!backgroundMesh/yMin $!backgroundMesh/zMin) // 1
    ($!backgroundMesh/xMax $!backgroundMesh/yMax $!backgroundMesh/zMin) // 2
    ($!backgroundMesh/xMin $!backgroundMesh/yMax $!backgroundMesh/zMin) // 3

    ($!backgroundMesh/xMin $!backgroundMesh/yMin $!backgroundMesh/zMax) // 4
    ($!backgroundMesh/xMax $!backgroundMesh/yMin $!backgroundMesh/zMax) // 5
    ($!backgroundMesh/xMax $!backgroundMesh/yMax $!backgroundMesh/zMax) // 6
    ($!backgroundMesh/xMin $!backgroundMesh/yMax $!backgroundMesh/zMax) // 7
);


blocks
(
    hex (0 1 2 3 4 5 6 7)
    (
        $!backgroundMesh/xCells
        $!backgroundMesh/yCells
        $!backgroundMesh/zCells
    )

    simpleGrading (1 1 3)
);

boundary
(
    inlet
    {
        type patch;
        faces
        (
            (0 4 7 3)
        );
    }
    outlet
    {
        type patch;
        faces
        (
            (1 5 6 2)
        );
    }
    sides
    {
        type patch;
        faces
        (
            (0 1 5 4)
            (3 2 6 7)
        );
    }
    top
    {
        type patch;
        faces
        (
            (4 5 6 7)
        );
    }
    ground
    {
        type patch;
        faces
        (
            (0 3 2 1)
        );
    }
);

mergePatchPairs
(
);
