/*--------------------------------*- C++ -*----------------------------------*\
  =========                 |
  \\      /  F ield         | OpenFOAM: The Open Source CFD Toolbox
   \\    /   O peration     | Website:  https://openfoam.org
    \\  /    A nd           | Version:  12
     \\/     M anipulation  |
\*---------------------------------------------------------------------------*/
FoamFile
{
    format      ascii;
    class       dictionary;
    object      controlDict;
}
// * * * * * * * * * * * * * * * * * * * * * * * * * * * * * * * * * * * * * //

application     foamRun;

solver          incompressibleFluid;

startFrom       latestTime;

startTime       0;

stopAt          endTime;

endTime         20000;

deltaT          1;

writeControl    timeStep;

writeInterval   10000;

purgeWrite      0;

writeFormat     ascii;

writePrecision  6;

writeCompression off;

timeFormat      general;

timePrecision   6;

runTimeModifiable yes;

libs ("libatmosphericModels.so");

// ************************************************************************* //


functions
{
    fileUpdate_Solution
    {
        type              timeActivatedFileUpdate;
        libs              ("libutilityFunctionObjects.so");
        writeControl      timeStep;
        writeInterval     1;
        fileToUpdate      "$FOAM_CASE/system/fvSchemes";
        timeVsFile
        (
            (-1   "$FOAM_CASE/system/fvSchemes_1")
            (1000 "$FOAM_CASE/system/fvSchemes_2")
        );
    }

    towerProfiles
    {
        type            sets;
        enabled         true;
        verbose         true;
        interpolationScheme cellPoint;
        functionObjectLibs ("libsampling.so");

        writeControl    writeTime;
        writeInterval   1;

        fields
        (
            U k epsilon
        );

        sets
        (
            tower_trSE_04
            {
                type            lineCell;
                axis            z;
                start           (607684.698 4395884.594 0);
                end             (607684.698 4395884.594 3000);
                nPoints         100;
            }

            tower_trSE_09
            {
                type            lineCell;
                axis            z;
                start           (608437.686 4396477.584 0);
                end             (608437.686 4396477.584 3000);
                nPoints         100;
            }

            tower_trSE_13
            {
                type            lineCell;
                axis            z;
                start           (608815.680 4396747.579 0);
                end             (608815.680 4396747.579 3000);
                nPoints         100;
            }
        );

        setFormat       csv;
        setPrecision    6;
    }
}