/*--------------------------------*- C++ -*----------------------------------*\
  =========                 |
  \\      /  F ield         | OpenFOAM: The Open Source CFD Toolbox
   \\    /   O peration     | Website:  https://openfoam.org
    \\  /    A nd           | Version:  12
     \\/     M anipulation  |
\*---------------------------------------------------------------------------*/
FoamFile
{
    format      ascii;
    class       dictionary;
    object      controlDict;
}
// * * * * * * * * * * * * * * * * * * * * * * * * * * * * * * * * * * * * * //

application     foamRun;

solver          incompressibleFluid;

startFrom       latestTime;

startTime       0;

stopAt          endTime;

endTime         20000;

deltaT          1;

writeControl    timeStep;

writeInterval   1000;

purgeWrite      0;

writeFormat     ascii;

writePrecision  6;

writeCompression off;

timeFormat      general;

timePrecision   6;

runTimeModifiable yes;

libs ("libatmosphericModels.so");

// ************************************************************************* //

/* functions
{
  // ... other includes like wallShearStress, forces, etc.

  #includeFunc probes_U_k;
  #includeFunc sampleLines;

  // Ensure this library is loaded for sampling functions
  functionObjectLibs
  (
    "libsampling.so"
  );
} */
functions
{
    towerProfiles
    {
        type            sets;
        enabled         true;
        verbose         true;
        interpolationScheme cellPoint;
        functionObjectLibs ("libsampling.so");

        writeControl    writeTime;
        writeInterval   1;

        fields
        (
            U
        );

        sets
        (
            tower_SE_04
            {
                type            lineUniform;
                axis            z;
                start           (-743.360 195.182 0);
                end             (-743.360 195.182 3000);
                nPoints         100;
            }

            tower_SE_09
            {
                type            lineUniform;
                axis            z;
                start           (214.780 165.432 0);
                end             (214.780 165.432 3000);
                nPoints         100;
            }

            tower_SE_13
            {
                type            lineUniform;
                axis            z;
                start           (678.212 130.126 0);
                end             (678.212 130.126 3000);
                nPoints         100;
            }
        );

        setFormat       csv;
        setPrecision    8;
    }
}